** sch_path: /foss/designs/tcc_eng/xschem/tb-top-pos-layout.sch
**.subckt tb-top-pos-layout
V1 net3 GND sin (0 1 2.45E9)
.save i(v1)
R2 net3 net4 300 m=1
I0 net1 GND 5u
V2 net2 GND 1.8
.save i(v2)
C1 out1 GND 100p m=1
x2 net5 out1 net2 net1 GND top-pos-layout
C2 net4 GND 1.73p m=1
L8 net5 net4 40.5n m=1
R1 GND out1 190k m=1
**** begin user architecture code


*.TRAN TSTEP TSTOP <TSTART <TMAX>> <UIC>

.control
save all
tran 0.02n 12u
plot out1
.endc



** opencircuitdesign pdks install
.lib /foss/pdks/sky130A/libs.tech/ngspice/sky130.lib.spice tt


**** end user architecture code
**.ends

* expanding   symbol:  top-pos-layout.sym # of pins=5
** sym_path: /foss/designs/tcc_eng/xschem/top-pos-layout.sym
** sch_path: /foss/designs/tcc_eng/xschem/top-pos-layout.sch
.subckt top-pos-layout top_in top_out top_ref top_ibias top_gnd
*.iopin top_in
*.iopin top_gnd
*.iopin top_ibias
*.iopin top_ref
*.iopin top_out
**** begin user architecture code

* NGSPICE file created from top.ext - technology: sky130A

*.subckt top top_ibias top_ref top_out top_in top_gnd
X0 top_gnd.t16 a_30400_19562.t2 x4.x1.Vout.t2 top_gnd.t15 sky130_fd_pr__nfet_g5v0d10v5 ad=0p pd=0u
+ as=0p ps=0u w=3e+06u l=1e+06u
X1 x2.o.t23 x1.o.t18 sky130_fd_pr__cap_mim_m3_1 l=3e+07u w=3e+07u
X2 x2.o.t17 x2.o.t15 w_10240_22900.t19 x2.o.t16 sky130_fd_pr__pfet_01v8_lvt ad=0p pd=0u as=0p ps=0u
+ w=8e+06u l=350000u
X3 x3.o.t57 top_ibias.t16 x4.x1.Vout.t0 x3.o.t56 sky130_fd_pr__pfet_g5v0d10v5 ad=0p pd=0u as=0p
+ ps=0u w=3e+06u l=1e+06u
X4 w_10240_22900.t18 x2.o.t12 x2.o.t14 x2.o.t13 sky130_fd_pr__pfet_01v8_lvt ad=0p pd=0u as=0p ps=0u
+ w=8e+06u l=350000u
X5 w_32630_16840.t9 top_ibias.t17 x3.o.t53 x3.o.t40 sky130_fd_pr__pfet_g5v0d10v5 ad=0p pd=0u as=0p
+ ps=0u w=3e+06u l=1e+06u
X6 w_1100_22900.t4 x1.o.t12 x1.o.t14 x1.o.t13 sky130_fd_pr__pfet_01v8_lvt ad=0p pd=0u as=0p ps=0u
+ w=8e+06u l=350000u
X7 x1.o.t22 w_10240_22900.t12 w_10240_22900.t14 w_10240_22900.t13 sky130_fd_pr__pfet_01v8_lvt ad=0p
+ pd=0u as=0p ps=0u w=8e+06u l=350000u
X8 w_32630_16840.t8 top_ibias.t18 x3.o.t54 x3.o.t37 sky130_fd_pr__pfet_g5v0d10v5 ad=0p pd=0u as=0p
+ ps=0u w=3e+06u l=1e+06u
X9 w_1100_22900.t3 x1.o.t9 x1.o.t11 x1.o.t10 sky130_fd_pr__pfet_01v8_lvt ad=0p pd=0u as=0p ps=0u
+ w=8e+06u l=350000u
X10 x3.o.t55 top_ibias.t19 x4.x1.Vout.t13 x3.o.t37 sky130_fd_pr__pfet_g5v0d10v5 ad=0p pd=0u as=0p
+ ps=0u w=3e+06u l=1e+06u
X11 x3.o.t52 top_ibias.t20 x4.x1.Vout.t7 x3.o.t40 sky130_fd_pr__pfet_g5v0d10v5 ad=0p pd=0u as=0p
+ ps=0u w=3e+06u l=1e+06u
X12 x3.o.t51 top_ibias.t21 w_32630_16840.t7 x3.o.t35 sky130_fd_pr__pfet_g5v0d10v5 ad=0p pd=0u as=0p
+ ps=0u w=3e+06u l=1e+06u
X13 top_gnd.t24 a_32988_17137.t1 a_32988_17137.t2 top_gnd.t0 sky130_fd_pr__nfet_g5v0d10v5 ad=0p
+ pd=0u as=0p ps=0u w=7e+06u l=500000u
X14 top_gnd.t19 w_1100_22900.t17 w_1100_22900.t19 w_1100_22900.t18 sky130_fd_pr__pfet_01v8_lvt ad=0p
+ pd=0u as=0p ps=0u w=8e+06u l=350000u
X15 w_19430_22900.t14 w_19430_22900.t12 x2.o.t20 w_19430_22900.t13 sky130_fd_pr__pfet_01v8_lvt ad=0p
+ pd=0u as=0p ps=0u w=8e+06u l=350000u
X16 x4.x1.Vout.t17 top_ibias.t22 x3.o.t50 x3.o.t35 sky130_fd_pr__pfet_g5v0d10v5 ad=0p pd=0u as=0p
+ ps=0u w=3e+06u l=1e+06u
X17 x3.o.t58 x2.o.t18 sky130_fd_pr__cap_mim_m3_1 l=3e+07u w=3e+07u
X18 x1.o.t8 x1.o.t6 w_1100_22900.t2 x1.o.t7 sky130_fd_pr__pfet_01v8_lvt ad=0p pd=0u as=0p ps=0u
+ w=8e+06u l=350000u
X19 w_10240_22900.t11 w_10240_22900.t9 x1.o.t15 w_10240_22900.t10 sky130_fd_pr__pfet_01v8_lvt ad=0p
+ pd=0u as=0p ps=0u w=8e+06u l=350000u
X20 top_gnd.t21 w_1100_22900.t14 w_1100_22900.t16 w_1100_22900.t15 sky130_fd_pr__pfet_01v8_lvt ad=0p
+ pd=0u as=0p ps=0u w=8e+06u l=350000u
X21 x1.o.t19 w_10240_22900.t6 w_10240_22900.t8 w_10240_22900.t7 sky130_fd_pr__pfet_01v8_lvt ad=0p
+ pd=0u as=0p ps=0u w=8e+06u l=350000u
X22 x3.o.t49 top_ibias.t23 w_32630_16840.t6 x3.o.t28 sky130_fd_pr__pfet_g5v0d10v5 ad=0p pd=0u as=0p
+ ps=0u w=3e+06u l=1e+06u
X23 a_32988_17137.t0 top_out.t1 w_32630_16840.t1 w_32630_16840.t0 sky130_fd_pr__pfet_g5v0d10v5 ad=0p
+ pd=0u as=0p ps=0u w=2e+06u l=500000u
X24 top_ibias.t7 top_ibias.t6 x3.o.t48 x3.o.t26 sky130_fd_pr__pfet_g5v0d10v5 ad=0p pd=0u as=0p ps=0u
+ w=3e+06u l=1e+06u
X25 top_gnd.t20 w_1100_22900.t11 w_1100_22900.t13 w_1100_22900.t12 sky130_fd_pr__pfet_01v8_lvt ad=0p
+ pd=0u as=0p ps=0u w=8e+06u l=350000u
X26 x1.o.t5 x1.o.t3 w_1100_22900.t1 x1.o.t4 sky130_fd_pr__pfet_01v8_lvt ad=0p pd=0u as=0p ps=0u
+ w=8e+06u l=350000u
X27 w_10240_22900.t5 w_10240_22900.t3 x1.o.t20 w_10240_22900.t4 sky130_fd_pr__pfet_01v8_lvt ad=0p
+ pd=0u as=0p ps=0u w=8e+06u l=350000u
X28 x3.o.t14 x3.o.t12 w_19430_22900.t19 x3.o.t13 sky130_fd_pr__pfet_01v8_lvt ad=0p pd=0u as=0p ps=0u
+ w=8e+06u l=350000u
X29 x4.x1.Vout.t12 top_ibias.t24 x3.o.t47 x3.o.t28 sky130_fd_pr__pfet_g5v0d10v5 ad=0p pd=0u as=0p
+ ps=0u w=3e+06u l=1e+06u
X30 w_19430_22900.t18 x3.o.t9 x3.o.t11 x3.o.t10 sky130_fd_pr__pfet_01v8_lvt ad=0p pd=0u as=0p ps=0u
+ w=8e+06u l=350000u
X31 top_gnd.t14 a_30400_19562.t3 x4.x1.Vout.t4 top_gnd.t13 sky130_fd_pr__nfet_g5v0d10v5 ad=0p pd=0u
+ as=0p ps=0u w=3e+06u l=1e+06u
X32 top_gnd.t1 a_32988_17137.t3 a_30400_19562.t0 top_gnd.t0 sky130_fd_pr__nfet_g5v0d10v5 ad=0p pd=0u
+ as=0p ps=0u w=7e+06u l=500000u
X33 x3.o.t46 top_ibias.t2 top_ibias.t3 x3.o.t18 sky130_fd_pr__pfet_g5v0d10v5 ad=0p pd=0u as=0p ps=0u
+ w=3e+06u l=1e+06u
X34 x1.o.t23 top_gnd.t2 sky130_fd_pr__cap_mim_m3_1 l=3e+07u w=3e+07u
X35 w_1100_22900.t10 w_1100_22900.t8 top_gnd.t23 w_1100_22900.t9 sky130_fd_pr__pfet_01v8_lvt ad=0p
+ pd=0u as=0p ps=0u w=8e+06u l=350000u
X36 w_10240_22900.t17 x2.o.t9 x2.o.t11 x2.o.t10 sky130_fd_pr__pfet_01v8_lvt ad=0p pd=0u as=0p ps=0u
+ w=8e+06u l=350000u
X37 w_19430_22900.t11 w_19430_22900.t9 x2.o.t19 w_19430_22900.t10 sky130_fd_pr__pfet_01v8_lvt ad=0p
+ pd=0u as=0p ps=0u w=8e+06u l=350000u
X38 top_ibias.t15 top_ibias.t14 x3.o.t45 x3.o.t22 sky130_fd_pr__pfet_g5v0d10v5 ad=0p pd=0u as=0p
+ ps=0u w=3e+06u l=1e+06u
X39 x1.o.t24 top_gnd.t25 sky130_fd_pr__cap_mim_m3_1 l=3e+07u w=3e+07u
X40 x2.o.t1 w_19430_22900.t6 w_19430_22900.t8 w_19430_22900.t7 sky130_fd_pr__pfet_01v8_lvt ad=0p
+ pd=0u as=0p ps=0u w=8e+06u l=350000u
X41 x2.o.t2 w_19430_22900.t3 w_19430_22900.t5 w_19430_22900.t4 sky130_fd_pr__pfet_01v8_lvt ad=0p
+ pd=0u as=0p ps=0u w=8e+06u l=350000u
X42 w_1100_22900.t20 top_in.t2 sky130_fd_pr__cap_mim_m3_1 l=3e+07u w=3e+07u
X43 x3.o.t59 x2.o.t21 sky130_fd_pr__cap_mim_m3_1 l=3e+07u w=3e+07u
X44 w_10240_22900.t16 x2.o.t6 x2.o.t8 x2.o.t7 sky130_fd_pr__pfet_01v8_lvt ad=0p pd=0u as=0p ps=0u
+ w=8e+06u l=350000u
X45 w_32630_16840.t5 top_ibias.t25 x3.o.t44 x3.o.t16 sky130_fd_pr__pfet_g5v0d10v5 ad=0p pd=0u as=0p
+ ps=0u w=3e+06u l=1e+06u
X46 x3.o.t60 x2.o.t22 sky130_fd_pr__cap_mim_m3_1 l=3e+07u w=3e+07u
X47 top_gnd.t12 a_30400_19562.t4 x4.x1.Vout.t3 top_gnd.t11 sky130_fd_pr__nfet_g5v0d10v5 ad=0p pd=0u
+ as=0p ps=0u w=3e+06u l=1e+06u
X48 x4.x1.Vout.t8 top_ibias.t26 x3.o.t43 x3.o.t42 sky130_fd_pr__pfet_g5v0d10v5 ad=0p pd=0u as=0p
+ ps=0u w=3e+06u l=1e+06u
X49 w_19430_22900.t20 top_in.t0 sky130_fd_pr__cap_mim_m3_1 l=3e+07u w=3e+07u
X50 w_1100_22900.t0 x1.o.t0 x1.o.t2 x1.o.t1 sky130_fd_pr__pfet_01v8_lvt ad=0p pd=0u as=0p ps=0u
+ w=8e+06u l=350000u
X51 x1.o.t21 w_10240_22900.t0 w_10240_22900.t2 w_10240_22900.t1 sky130_fd_pr__pfet_01v8_lvt ad=0p
+ pd=0u as=0p ps=0u w=8e+06u l=350000u
X52 x3.o.t5 x3.o.t3 w_19430_22900.t17 x3.o.t4 sky130_fd_pr__pfet_01v8_lvt ad=0p pd=0u as=0p ps=0u
+ w=8e+06u l=350000u
X53 w_19430_22900.t16 x3.o.t6 x3.o.t8 x3.o.t7 sky130_fd_pr__pfet_01v8_lvt ad=0p pd=0u as=0p ps=0u
+ w=8e+06u l=350000u
X54 x3.o.t39 top_ibias.t27 x4.x1.Vout.t11 x3.o.t16 sky130_fd_pr__pfet_g5v0d10v5 ad=0p pd=0u as=0p
+ ps=0u w=3e+06u l=1e+06u
X55 x4.x1.Vout.t5 a_30400_19562.t5 top_gnd.t10 top_gnd.t9 sky130_fd_pr__nfet_g5v0d10v5 ad=0p pd=0u
+ as=0p ps=0u w=3e+06u l=1e+06u
X56 x3.o.t41 top_ibias.t8 top_ibias.t9 x3.o.t40 sky130_fd_pr__pfet_g5v0d10v5 ad=0p pd=0u as=0p ps=0u
+ w=3e+06u l=1e+06u
X57 x2.o.t5 x2.o.t3 w_10240_22900.t15 x2.o.t4 sky130_fd_pr__pfet_01v8_lvt ad=0p pd=0u as=0p ps=0u
+ w=8e+06u l=350000u
X58 x3.o.t38 top_ibias.t10 top_ibias.t11 x3.o.t37 sky130_fd_pr__pfet_g5v0d10v5 ad=0p pd=0u as=0p
+ ps=0u w=3e+06u l=1e+06u
X59 top_out.t0 x4.x1.Vout.t19 x3.o.t15 top_gnd.t18 sky130_fd_pr__nfet_03v3_nvt ad=0p pd=0u as=0p
+ ps=0u w=1e+07u l=500000u
X60 top_ibias.t1 top_ibias.t0 x3.o.t36 x3.o.t35 sky130_fd_pr__pfet_g5v0d10v5 ad=0p pd=0u as=0p ps=0u
+ w=3e+06u l=1e+06u
X61 w_10240_22900.t20 top_in.t1 sky130_fd_pr__cap_mim_m3_1 l=3e+07u w=3e+07u
X62 x3.o.t34 top_ibias.t28 x4.x1.Vout.t18 x3.o.t33 sky130_fd_pr__pfet_g5v0d10v5 ad=0p pd=0u as=0p
+ ps=0u w=3e+06u l=1e+06u
X63 x4.x1.Vout.t2 a_30400_19562.t6 top_gnd.t8 top_gnd.t7 sky130_fd_pr__nfet_g5v0d10v5 ad=0p pd=0u
+ as=0p ps=0u w=3e+06u l=1e+06u
X64 x1.o.t25 top_gnd.t17 sky130_fd_pr__cap_mim_m3_1 l=3e+07u w=3e+07u
X65 w_19430_22900.t15 x3.o.t0 x3.o.t2 x3.o.t1 sky130_fd_pr__pfet_01v8_lvt ad=0p pd=0u as=0p ps=0u
+ w=8e+06u l=350000u
X66 x4.x1.Vout.t9 top_ibias.t29 x3.o.t21 x3.o.t20 sky130_fd_pr__pfet_g5v0d10v5 ad=0p pd=0u as=0p
+ ps=0u w=3e+06u l=1e+06u
X67 x3.o.t32 top_ibias.t30 x4.x1.Vout.t15 x3.o.t31 sky130_fd_pr__pfet_g5v0d10v5 ad=0p pd=0u as=0p
+ ps=0u w=3e+06u l=1e+06u
X68 x3.o.t30 top_ibias.t31 w_32630_16840.t4 x3.o.t26 sky130_fd_pr__pfet_g5v0d10v5 ad=0p pd=0u as=0p
+ ps=0u w=3e+06u l=1e+06u
X69 top_ibias.t13 top_ibias.t12 x3.o.t29 x3.o.t28 sky130_fd_pr__pfet_g5v0d10v5 ad=0p pd=0u as=0p
+ ps=0u w=3e+06u l=1e+06u
X70 x4.x1.Vout.t14 top_ibias.t32 x3.o.t27 x3.o.t26 sky130_fd_pr__pfet_g5v0d10v5 ad=0p pd=0u as=0p
+ ps=0u w=3e+06u l=1e+06u
X71 w_32630_16840.t3 top_ibias.t33 x3.o.t19 x3.o.t18 sky130_fd_pr__pfet_g5v0d10v5 ad=0p pd=0u as=0p
+ ps=0u w=3e+06u l=1e+06u
X72 top_gnd.t6 a_30400_19562.t7 x4.x1.Vout.t6 top_gnd.t5 sky130_fd_pr__nfet_g5v0d10v5 ad=0p pd=0u
+ as=0p ps=0u w=3e+06u l=1e+06u
X73 x3.o.t25 top_ibias.t34 x4.x1.Vout.t10 x3.o.t18 sky130_fd_pr__pfet_g5v0d10v5 ad=0p pd=0u as=0p
+ ps=0u w=3e+06u l=1e+06u
X74 x3.o.t24 top_ibias.t35 w_32630_16840.t2 x3.o.t22 sky130_fd_pr__pfet_g5v0d10v5 ad=0p pd=0u as=0p
+ ps=0u w=3e+06u l=1e+06u
X75 a_30400_19562.t8 x4.x1.Vout.t1 sky130_fd_pr__cap_mim_m3_1 l=2.3e+07u w=2.3e+07u
X76 x2.o.t24 x1.o.t17 sky130_fd_pr__cap_mim_m3_1 l=3e+07u w=3e+07u
X77 x4.x1.Vout.t16 top_ibias.t36 x3.o.t23 x3.o.t22 sky130_fd_pr__pfet_g5v0d10v5 ad=0p pd=0u as=0p
+ ps=0u w=3e+06u l=1e+06u
X78 a_30400_19562.t1 top_ref.t0 w_32630_16840.t10 w_32630_16840.t0 sky130_fd_pr__pfet_g5v0d10v5
+ ad=0p pd=0u as=0p ps=0u w=2e+06u l=500000u
X79 w_1100_22900.t7 w_1100_22900.t5 top_gnd.t22 w_1100_22900.t6 sky130_fd_pr__pfet_01v8_lvt ad=0p
+ pd=0u as=0p ps=0u w=8e+06u l=350000u
X80 x2.o.t0 w_19430_22900.t0 w_19430_22900.t2 w_19430_22900.t1 sky130_fd_pr__pfet_01v8_lvt ad=0p
+ pd=0u as=0p ps=0u w=8e+06u l=350000u
X81 x4.x1.Vout.t3 a_30400_19562.t9 top_gnd.t4 top_gnd.t3 sky130_fd_pr__nfet_g5v0d10v5 ad=0p pd=0u
+ as=0p ps=0u w=3e+06u l=1e+06u
X82 x3.o.t17 top_ibias.t4 top_ibias.t5 x3.o.t16 sky130_fd_pr__pfet_g5v0d10v5 ad=0p pd=0u as=0p ps=0u
+ w=3e+06u l=1e+06u
X83 x2.o.t25 x1.o.t16 sky130_fd_pr__cap_mim_m3_1 l=3e+07u w=3e+07u
R0 a_30400_19562.n0 a_30400_19562.t3 86.019
R1 a_30400_19562.n0 a_30400_19562.t5 85.559
R2 a_30400_19562.n1 a_30400_19562.t7 85.559
R3 a_30400_19562.n2 a_30400_19562.t6 85.559
R4 a_30400_19562.n3 a_30400_19562.t2 85.559
R5 a_30400_19562.n4 a_30400_19562.t9 85.559
R6 a_30400_19562.n5 a_30400_19562.t4 85.559
R7 a_30400_19562.n7 a_30400_19562.t1 14.072
R8 a_30400_19562.t0 a_30400_19562.n7 2.544
R9 a_30400_19562.n7 a_30400_19562.n6 1.886
R10 a_30400_19562.n6 a_30400_19562.n5 1.401
R11 a_30400_19562.n6 a_30400_19562.t8 0.486
R12 a_30400_19562.n5 a_30400_19562.n4 0.46
R13 a_30400_19562.n4 a_30400_19562.n3 0.46
R14 a_30400_19562.n3 a_30400_19562.n2 0.46
R15 a_30400_19562.n2 a_30400_19562.n1 0.46
R16 a_30400_19562.n1 a_30400_19562.n0 0.46
R17 x4.x1.Vout x4.x1.Vout.t19 513.353
R18 x4.x1.Vout.n7 x4.x1.Vout.t18 9.234
R19 x4.x1.Vout.n0 x4.x1.Vout.t15 9.231
R20 x4.x1.Vout.n0 x4.x1.Vout.t8 9.231
R21 x4.x1.Vout.n1 x4.x1.Vout.t10 9.231
R22 x4.x1.Vout.n1 x4.x1.Vout.t16 9.231
R23 x4.x1.Vout.n2 x4.x1.Vout.t13 9.231
R24 x4.x1.Vout.n2 x4.x1.Vout.t17 9.231
R25 x4.x1.Vout.n3 x4.x1.Vout.t11 9.231
R26 x4.x1.Vout.n3 x4.x1.Vout.t12 9.231
R27 x4.x1.Vout.n6 x4.x1.Vout.t7 9.231
R28 x4.x1.Vout.n6 x4.x1.Vout.t14 9.231
R29 x4.x1.Vout.n4 x4.x1.Vout.t0 9.231
R30 x4.x1.Vout.n4 x4.x1.Vout.t9 9.231
R31 x4.x1.Vout.n8 x4.x1.Vout.t4 5.513
R32 x4.x1.Vout.n5 x4.x1.Vout.t6 5.51
R33 x4.x1.Vout.n5 x4.x1.Vout.t5 5.51
R34 x4.x1.Vout.n8 x4.x1.Vout.n7 2.511
R35 x4.x1.Vout x4.x1.Vout.t3 1.517
R36 x4.x1.Vout x4.x1.Vout.t1 1.486
R37 x4.x1.Vout.n1 x4.x1.Vout.n2 0.436
R38 x4.x1.Vout.n3 x4.x1.Vout.n6 0.433
R39 x4.x1.Vout.n4 x4.x1.Vout.n1 0.433
R40 x4.x1.Vout.n2 x4.x1.Vout.n3 0.433
R41 x4.x1.Vout.n0 x4.x1.Vout.n4 0.433
R42 x4.x1.Vout.t2 x4.x1.Vout.n5 0.433
R43 x4.x1.Vout.t3 x4.x1.Vout.t2 0.43
R44 x4.x1.Vout.n5 x4.x1.Vout.n8 0.43
R45 x4.x1.Vout.n7 x4.x1.Vout.n0 0.43
R46 top_gnd.n42 top_gnd.t11 1036.93
R47 top_gnd.n53 top_gnd.t13 1036.92
R48 top_gnd.t15 top_gnd.t3 1017.2
R49 top_gnd.t7 top_gnd.t15 1017.2
R50 top_gnd.t7 top_gnd.t5 1017.2
R51 top_gnd.t13 top_gnd.t9 1017.2
R52 top_gnd.n47 top_gnd.n43 569.6
R53 top_gnd.t18 top_gnd.n5 522.917
R54 top_gnd.n56 top_gnd.n47 402.667
R55 top_gnd.t18 top_gnd.n7 280.093
R56 top_gnd.t0 top_gnd.n14 245.597
R57 top_gnd.n21 top_gnd.n20 92.585
R58 top_gnd.n37 top_gnd.n18 92.585
R59 top_gnd.n68 top_gnd.n65 19.508
R60 top_gnd.n60 top_gnd.t12 5.514
R61 top_gnd.n41 top_gnd.t10 5.51
R62 top_gnd.n41 top_gnd.t14 5.51
R63 top_gnd.n40 top_gnd.t8 5.51
R64 top_gnd.n40 top_gnd.t6 5.51
R65 top_gnd.n39 top_gnd.t4 5.51
R66 top_gnd.n39 top_gnd.t16 5.51
R67 top_gnd.n65 top_gnd.t18 4.04
R68 top_gnd.n3 top_gnd.t20 3.632
R69 top_gnd.n0 top_gnd.t22 3.57
R70 top_gnd.n0 top_gnd.t19 3.57
R71 top_gnd.n1 top_gnd.t23 3.57
R72 top_gnd.n1 top_gnd.t21 3.57
R73 top_gnd.n65 top_gnd.n64 3.264
R74 top_gnd.n61 top_gnd.n60 2.68
R75 top_gnd.n38 top_gnd.t1 2.475
R76 top_gnd.n62 top_gnd.t24 2.474
R77 top_gnd.n66 top_gnd.t17 2.363
R78 top_gnd.n67 top_gnd.n66 2.292
R79 top_gnd.n69 top_gnd.n68 0.828
R80 top_gnd top_gnd.n69 0.675
R81 top_gnd.n60 top_gnd.n59 0.43
R82 top_gnd.n59 top_gnd.n58 0.43
R83 top_gnd.n58 top_gnd.n57 0.43
R84 top_gnd.n63 top_gnd.n62 0.349
R85 top_gnd.n69 top_gnd.n3 0.333
R86 top_gnd.n57 top_gnd.n56 0.327
R87 top_gnd.n63 top_gnd.n61 0.277
R88 top_gnd.n2 top_gnd.n1 0.222
R89 top_gnd.n64 top_gnd.n63 0.163
R90 top_gnd.n3 top_gnd.n2 0.16
R91 top_gnd.n64 x4.ldo_gnd 0.155
R92 top_gnd.n68 top_gnd.n67 0.122
R93 top_gnd.n52 top_gnd.n49 0.071
R94 top_gnd.n49 top_gnd.n48 0.071
R95 top_gnd.n61 top_gnd.n38 0.064
R96 top_gnd.n2 top_gnd.n0 0.062
R97 top_gnd.n63 x4.x1.VSS 0.062
R98 top_gnd.n20 top_gnd.n19 0.058
R99 top_gnd.n9 top_gnd.n8 0.058
R100 top_gnd.t0 top_gnd.n9 0.058
R101 top_gnd.n16 top_gnd.n15 0.058
R102 top_gnd.t0 top_gnd.n16 0.058
R103 top_gnd.n18 top_gnd.n17 0.058
R104 top_gnd.n17 top_gnd.t0 0.058
R105 top_gnd.n7 top_gnd.n6 0.058
R106 top_gnd.n52 top_gnd.n51 0.034
R107 top_gnd.n51 top_gnd.n50 0.034
R108 top_gnd.n38 top_gnd.n37 0.033
R109 top_gnd.n67 top_gnd.t2 0.031
R110 top_gnd.n28 top_gnd.n27 0.023
R111 top_gnd.n33 top_gnd.n32 0.023
R112 top_gnd.n66 top_gnd.t25 0.023
R113 top_gnd.n27 top_gnd.n26 0.023
R114 top_gnd.n32 top_gnd.n31 0.023
R115 top_gnd.n43 top_gnd.n42 0.017
R116 top_gnd.n28 top_gnd.n25 0.016
R117 top_gnd.n33 top_gnd.n30 0.016
R118 top_gnd.n25 top_gnd.n24 0.016
R119 top_gnd.n30 top_gnd.n29 0.016
R120 top_gnd.n11 top_gnd.n10 0.008
R121 top_gnd.n14 top_gnd.n11 0.008
R122 top_gnd.n13 top_gnd.n12 0.008
R123 top_gnd.n14 top_gnd.n13 0.008
R124 top_gnd.n45 top_gnd.n44 0.007
R125 top_gnd.t7 top_gnd.n45 0.007
R126 top_gnd.n47 top_gnd.n46 0.007
R127 top_gnd.n46 top_gnd.t7 0.007
R128 top_gnd.n5 top_gnd.n4 0.006
R129 top_gnd.n57 top_gnd.n41 0.004
R130 top_gnd.n58 top_gnd.n40 0.004
R131 top_gnd.n59 top_gnd.n39 0.004
R132 top_gnd.n56 top_gnd.n55 0.001
R133 top_gnd.n22 top_gnd.n21 0.001
R134 top_gnd.n37 top_gnd.n36 0.001
R135 top_gnd.n23 top_gnd.n22 0.001
R136 top_gnd.n34 top_gnd.n23 0.001
R137 top_gnd.n36 top_gnd.n35 0.001
R138 top_gnd.n35 top_gnd.n34 0.001
R139 top_gnd.n55 top_gnd.n54 0.001
R140 top_gnd.n54 top_gnd.n53 0.001
R141 top_gnd.n53 top_gnd.n52 0.001
R142 top_gnd.n34 top_gnd.n28 0.001
R143 top_gnd.n34 top_gnd.n33 0.001
R144 x2.o.t3 x2.o.n13 595.081
R145 x2.o.t9 x2.o.n12 595.081
R146 x2.o.t15 x2.o.n9 595.081
R147 x2.o.n14 x2.o.t6 595.081
R148 x2.o.n0 x2.o.t3 595.081
R149 x2.o.t10 x2.o.t9 595.081
R150 x2.o.n1 x2.o.t15 595.081
R151 x2.o.n15 x2.o.t12 595.081
R152 x2.o.t10 x2.o.t7 118.434
R153 x2.o.t10 x2.o.n11 105.788
R154 x2.o.t10 x2.o.t16 59.666
R155 x2.o.t10 x2.o.t4 59.666
R156 x2.o.n10 x2.o.t13 11.729
R157 x2.o.n5 x2.o.t2 3.632
R158 x2.o.n14 x2.o.t8 3.58
R159 x2.o.n1 x2.o.t14 3.57
R160 x2.o.n1 x2.o.t17 3.57
R161 x2.o.n2 x2.o.t19 3.57
R162 x2.o.n2 x2.o.t0 3.57
R163 x2.o.n3 x2.o.t20 3.57
R164 x2.o.n3 x2.o.t1 3.57
R165 x2.o.n0 x2.o.t11 3.57
R166 x2.o.n0 x2.o.t5 3.57
R167 x2.o x3.ground 2.694
R168 x2.o.n6 x2.o.t18 2.363
R169 x2.o.n7 x2.o.n6 2.292
R170 x2.o.n8 x2.o.n7 0.951
R171 x2.o.n16 x2.o.n15 0.729
R172 x3.ground x2.o.n8 0.675
R173 x2.o.n8 x2.o.n5 0.333
R174 x2.o x2.o.n16 0.253
R175 x2.o.n4 x2.o.n3 0.222
R176 x2.o.t23 x2.o.t24 0.216
R177 x2.o.t25 x2.o.t23 0.216
R178 x2.o.n5 x2.o.n4 0.16
R179 x2.o.n11 x2.o.n10 0.075
R180 x2.o.n4 x2.o.n2 0.062
R181 x2.o.n1 x2.o.t10 0.039
R182 x2.o.n7 x2.o.t21 0.031
R183 x2.o.n6 x2.o.t22 0.023
R184 x2.o.n16 x2.o.t25 0.023
R185 x2.o.n0 x2.o.n14 0.02
R186 x2.o.t10 x2.o.n0 0.02
R187 x2.o.n15 x2.o.n1 0.02
R188 x1.o.t3 x1.o.n13 595.081
R189 x1.o.t12 x1.o.n12 595.081
R190 x1.o.t6 x1.o.n9 595.081
R191 x1.o.n14 x1.o.t0 595.081
R192 x1.o.n0 x1.o.t3 595.081
R193 x1.o.t13 x1.o.t12 595.081
R194 x1.o.n1 x1.o.t6 595.081
R195 x1.o.n15 x1.o.t9 595.081
R196 x1.o.t13 x1.o.t1 118.434
R197 x1.o.t13 x1.o.n11 105.788
R198 x1.o.t13 x1.o.t7 59.666
R199 x1.o.t13 x1.o.t4 59.666
R200 x1.o.n10 x1.o.t10 11.729
R201 x1.o.n5 x1.o.t19 3.632
R202 x1.o.n14 x1.o.t2 3.58
R203 x1.o.n1 x1.o.t11 3.57
R204 x1.o.n1 x1.o.t8 3.57
R205 x1.o.n0 x1.o.t14 3.57
R206 x1.o.n0 x1.o.t5 3.57
R207 x1.o.n2 x1.o.t15 3.57
R208 x1.o.n2 x1.o.t22 3.57
R209 x1.o.n3 x1.o.t20 3.57
R210 x1.o.n3 x1.o.t21 3.57
R211 x1.o x2.ground 2.655
R212 x1.o.n6 x1.o.t17 2.363
R213 x1.o.n7 x1.o.n6 2.292
R214 x1.o.n8 x1.o.n7 0.951
R215 x1.o.n16 x1.o.n15 0.729
R216 x2.ground x1.o.n8 0.675
R217 x1.o.n8 x1.o.n5 0.333
R218 x1.o x1.o.n16 0.253
R219 x1.o.n4 x1.o.n3 0.222
R220 x1.o.t24 x1.o.t25 0.216
R221 x1.o.t23 x1.o.t24 0.216
R222 x1.o.n5 x1.o.n4 0.16
R223 x1.o.n11 x1.o.n10 0.075
R224 x1.o.n4 x1.o.n2 0.062
R225 x1.o.n1 x1.o.t13 0.039
R226 x1.o.n7 x1.o.t16 0.031
R227 x1.o.n6 x1.o.t18 0.023
R228 x1.o.n16 x1.o.t23 0.023
R229 x1.o.n0 x1.o.n14 0.02
R230 x1.o.t13 x1.o.n0 0.02
R231 x1.o.n15 x1.o.n1 0.02
R232 w_10240_22900.t3 w_10240_22900.n8 595.081
R233 w_10240_22900.t12 w_10240_22900.n7 595.081
R234 w_10240_22900.t9 w_10240_22900.n9 595.081
R235 w_10240_22900.n10 w_10240_22900.t0 595.081
R236 w_10240_22900.n10 w_10240_22900.t3 595.081
R237 w_10240_22900.n10 w_10240_22900.t12 595.081
R238 w_10240_22900.n10 w_10240_22900.t9 595.081
R239 w_10240_22900.n10 w_10240_22900.t6 595.081
R240 w_10240_22900.t13 w_10240_22900.t1 118.434
R241 w_10240_22900.t13 w_10240_22900.n4 105.788
R242 w_10240_22900.t13 w_10240_22900.t10 59.666
R243 w_10240_22900.t13 w_10240_22900.t4 59.666
R244 w_10240_22900.n3 w_10240_22900.t7 11.729
R245 w_10240_22900.n0 w_10240_22900.t18 3.73
R246 w_10240_22900.n11 w_10240_22900.t8 3.57
R247 w_10240_22900.n11 w_10240_22900.t11 3.57
R248 w_10240_22900.n11 w_10240_22900.t2 3.57
R249 w_10240_22900.n1 w_10240_22900.t15 3.57
R250 w_10240_22900.n1 w_10240_22900.t16 3.57
R251 w_10240_22900.n0 w_10240_22900.t19 3.57
R252 w_10240_22900.n0 w_10240_22900.t17 3.57
R253 w_10240_22900.t14 w_10240_22900.n11 3.57
R254 w_10240_22900.n11 w_10240_22900.t5 3.57
R255 w_10240_22900.n2 w_10240_22900.t20 0.944
R256 w_10240_22900.n2 w_10240_22900.n1 0.509
R257 w_10240_22900.n1 w_10240_22900.n0 0.16
R258 w_10240_22900.n4 w_10240_22900.n3 0.075
R259 w_10240_22900.n11 w_10240_22900.n10 0.072
R260 w_10240_22900.t13 w_10240_22900.n2 0.053
R261 w_10240_22900.n10 w_10240_22900.t13 0.023
R262 w_10240_22900.t13 w_10240_22900.n6 0.008
R263 w_10240_22900.n6 w_10240_22900.n5 0.006
R264 top_ibias.n0 top_ibias.t8 88.086
R265 top_ibias.n14 top_ibias.t20 88.086
R266 top_ibias.n22 top_ibias.t28 88.086
R267 top_ibias.n7 top_ibias.t17 88.086
R268 top_ibias.n5 top_ibias.t2 87.728
R269 top_ibias.n4 top_ibias.t0 87.728
R270 top_ibias.n3 top_ibias.t10 87.728
R271 top_ibias.n2 top_ibias.t12 87.728
R272 top_ibias.n1 top_ibias.t4 87.728
R273 top_ibias.n0 top_ibias.t6 87.728
R274 top_ibias.n6 top_ibias.t14 87.728
R275 top_ibias.n22 top_ibias.t26 87.728
R276 top_ibias.n23 top_ibias.t30 87.728
R277 top_ibias.n24 top_ibias.t29 87.728
R278 top_ibias.n21 top_ibias.t16 87.728
R279 top_ibias.n20 top_ibias.t36 87.728
R280 top_ibias.n19 top_ibias.t34 87.728
R281 top_ibias.n18 top_ibias.t22 87.728
R282 top_ibias.n17 top_ibias.t19 87.728
R283 top_ibias.n16 top_ibias.t24 87.728
R284 top_ibias.n15 top_ibias.t27 87.728
R285 top_ibias.n14 top_ibias.t32 87.728
R286 top_ibias.n7 top_ibias.t31 87.728
R287 top_ibias.n8 top_ibias.t25 87.728
R288 top_ibias.n9 top_ibias.t23 87.728
R289 top_ibias.n10 top_ibias.t18 87.728
R290 top_ibias.n11 top_ibias.t21 87.728
R291 top_ibias.n12 top_ibias.t33 87.728
R292 top_ibias.n13 top_ibias.t35 87.728
R293 top_ibias.n32 top_ibias.t3 9.231
R294 top_ibias.n32 top_ibias.t15 9.231
R295 top_ibias.n30 top_ibias.t11 9.231
R296 top_ibias.n30 top_ibias.t1 9.231
R297 top_ibias.n28 top_ibias.t5 9.231
R298 top_ibias.n28 top_ibias.t13 9.231
R299 top_ibias.n27 top_ibias.t9 9.231
R300 top_ibias.n27 top_ibias.t7 9.231
R301 x4.ldo_ibias top_ibias 4.929
R302 top_ibias.n34 top_ibias.n26 2.291
R303 top_ibias.n35 top_ibias.n34 0.941
R304 top_ibias.n34 top_ibias.n6 0.809
R305 top_ibias.n26 top_ibias.n13 0.684
R306 top_ibias.n34 top_ibias.n33 0.518
R307 top_ibias.n29 top_ibias.n27 0.434
R308 top_ibias.n31 top_ibias.n29 0.43
R309 top_ibias.n33 top_ibias.n31 0.43
R310 top_ibias.n26 top_ibias.n25 0.402
R311 top_ibias.n1 top_ibias.n0 0.358
R312 top_ibias.n2 top_ibias.n1 0.358
R313 top_ibias.n3 top_ibias.n2 0.358
R314 top_ibias.n4 top_ibias.n3 0.358
R315 top_ibias.n5 top_ibias.n4 0.358
R316 top_ibias.n6 top_ibias.n5 0.358
R317 top_ibias.n15 top_ibias.n14 0.358
R318 top_ibias.n16 top_ibias.n15 0.358
R319 top_ibias.n17 top_ibias.n16 0.358
R320 top_ibias.n18 top_ibias.n17 0.358
R321 top_ibias.n19 top_ibias.n18 0.358
R322 top_ibias.n20 top_ibias.n19 0.358
R323 top_ibias.n21 top_ibias.n20 0.358
R324 top_ibias.n24 top_ibias.n23 0.358
R325 top_ibias.n23 top_ibias.n22 0.358
R326 top_ibias.n8 top_ibias.n7 0.358
R327 top_ibias.n9 top_ibias.n8 0.358
R328 top_ibias.n10 top_ibias.n9 0.358
R329 top_ibias.n11 top_ibias.n10 0.358
R330 top_ibias.n12 top_ibias.n11 0.358
R331 top_ibias.n13 top_ibias.n12 0.358
R332 top_ibias.n25 top_ibias.n21 0.326
R333 x4.ldo_ibias top_ibias.n35 0.32
R334 top_ibias.n35 top_ibias 0.062
R335 top_ibias.n25 top_ibias.n24 0.031
R336 top_ibias.n33 top_ibias.n32 0.004
R337 top_ibias.n31 top_ibias.n30 0.004
R338 top_ibias.n29 top_ibias.n28 0.004
R339 x3.o.n19 x3.o.n23 362.418
R340 x3.o.n20 x3.o.n19 592.557
R341 x3.o.t33 x3.o.n18 209.255
R342 x3.o.t18 x3.o.n19 0.003
R343 x3.o.n25 x3.o.n20 0.292
R344 x3.o.n0 x3.o.n1 0.004
R345 x3.o.t3 x3.o.n31 595.081
R346 x3.o.t6 x3.o.n30 595.081
R347 x3.o.t12 x3.o.n27 595.081
R348 x3.o.n32 x3.o.t0 595.081
R349 x3.o.n33 x3.o.t3 595.081
R350 x3.o.n35 x3.o.t6 595.081
R351 x3.o.n36 x3.o.t12 595.081
R352 x3.o.n38 x3.o.t9 595.081
R353 x3.o.n14 x3.o.n1 391.096
R354 x3.o.n0 x3.o.n15 226.33
R355 x3.o.n16 x3.o.n0 388.723
R356 x3.o.n17 x3.o.n15 0.003
R357 x3.o.t31 x3.o.t20 205.276
R358 x3.o.t42 x3.o.t31 205.276
R359 x3.o.t33 x3.o.t42 205.276
R360 x3.o.t20 x3.o.n14 151.915
R361 x3.o.t7 x3.o.t1 118.434
R362 x3.o.t7 x3.o.n29 105.788
R363 x3.o.n18 x3.o.t18 658.189
R364 x3.o.n23 x3.o.t40 72.546
R365 x3.o.t26 x3.o.t40 71.167
R366 x3.o.t16 x3.o.t26 71.167
R367 x3.o.t28 x3.o.t16 71.167
R368 x3.o.t37 x3.o.t35 71.167
R369 x3.o.t35 x3.o.t18 71.167
R370 x3.o.t22 x3.o.t18 71.167
R371 x3.o.t56 x3.o.t22 71.167
R372 x3.o.t7 x3.o.t13 59.666
R373 x3.o.t7 x3.o.t4 59.666
R374 x3.o.n0 x3.o.t28 35.583
R375 x3.o.n0 x3.o.t37 35.583
R376 x3.o.n28 x3.o.t10 11.729
R377 x3.o.n7 x3.o.t52 9.665
R378 x3.o.n13 x3.o.t41 9.664
R379 x3.o.n22 x3.o.t45 9.234
R380 x3.o.n11 x3.o.t36 9.231
R381 x3.o.n11 x3.o.t46 9.231
R382 x3.o.n12 x3.o.t29 9.231
R383 x3.o.n12 x3.o.t38 9.231
R384 x3.o.n13 x3.o.t48 9.231
R385 x3.o.n13 x3.o.t17 9.231
R386 x3.o.n2 x3.o.t43 9.231
R387 x3.o.n2 x3.o.t34 9.231
R388 x3.o.n3 x3.o.t21 9.231
R389 x3.o.n3 x3.o.t32 9.231
R390 x3.o.n4 x3.o.t23 9.231
R391 x3.o.n4 x3.o.t57 9.231
R392 x3.o.n5 x3.o.t50 9.231
R393 x3.o.n5 x3.o.t25 9.231
R394 x3.o.n6 x3.o.t47 9.231
R395 x3.o.n6 x3.o.t55 9.231
R396 x3.o.n7 x3.o.t27 9.231
R397 x3.o.n7 x3.o.t39 9.231
R398 x3.o.n8 x3.o.t19 9.231
R399 x3.o.n8 x3.o.t24 9.231
R400 x3.o.n9 x3.o.t54 9.231
R401 x3.o.n9 x3.o.t51 9.231
R402 x3.o.n10 x3.o.t44 9.231
R403 x3.o.n10 x3.o.t49 9.231
R404 x3.o.n24 x3.o.t53 9.231
R405 x3.o.n24 x3.o.t30 9.231
R406 x3.o.n26 x3.o.n25 6.335
R407 x3.o.n26 x3.o.t15 4.416
R408 x3.o.n32 x3.o.t2 3.58
R409 x3.o.n37 x3.o.t11 3.57
R410 x3.o.n37 x3.o.t14 3.57
R411 x3.o.n34 x3.o.t8 3.57
R412 x3.o.n34 x3.o.t5 3.57
R413 x3.o.n17 x3.o.n21 1.653
R414 x3.o.n14 x3.o.t56 1.379
R415 x3.o.n16 x3.o.n21 1.132
R416 x3.o.n39 x3.o.n38 0.729
R417 x3.o.n10 x3.o.n24 0.434
R418 x3.o.n9 x3.o.n10 0.434
R419 x3.o.n8 x3.o.n9 0.434
R420 x3.o.n6 x3.o.n7 0.434
R421 x3.o.n5 x3.o.n6 0.434
R422 x3.o.n4 x3.o.n5 0.434
R423 x3.o.n3 x3.o.n4 0.434
R424 x3.o.n2 x3.o.n3 0.434
R425 x3.o.n12 x3.o.n13 0.433
R426 x3.o.n11 x3.o.n12 0.433
R427 x3.o.n22 x3.o.n11 0.433
R428 x3.o.n18 x3.o.n2 0.343
R429 x3.o.n16 x3.o.n8 0.33
R430 x3.o.n25 x3.o.n21 0.281
R431 x3.o x3.o.n39 0.253
R432 x3.o.t60 x3.o.t58 0.216
R433 x3.o.t59 x3.o.t60 0.216
R434 x3.o x4.ldo_in 0.143
R435 x3.o.n20 x3.o.n18 0.137
R436 x3.o.n17 x3.o.n22 0.111
R437 x3.o.n29 x3.o.n28 0.075
R438 x3.o.n21 x4.x1.VDD 0.062
R439 x4.ldo_in x3.o.n26 0.062
R440 x3.o.n39 x3.o.t59 0.023
R441 x3.o.n36 x3.o.n35 0.02
R442 x3.o.n33 x3.o.n32 0.02
R443 x3.o.n35 x3.o.t7 0.019
R444 x3.o.n38 x3.o.n37 0.01
R445 x3.o.n37 x3.o.n36 0.01
R446 x3.o.n35 x3.o.n34 0.01
R447 x3.o.n34 x3.o.n33 0.01
R448 x3.o.n14 x3.o.n16 0.005
R449 x3.o.n15 x3.o.n14 0.003
R450 x3.o.n23 x3.o.n1 130.26
R451 w_32630_16840.n0 w_32630_16840.t0 105.721
R452 w_32630_16840.n0 w_32630_16840.t1 13.96
R453 w_32630_16840.n0 w_32630_16840.t10 13.96
R454 w_32630_16840.n1 w_32630_16840.t2 9.664
R455 w_32630_16840.t9 w_32630_16840.n6 9.234
R456 w_32630_16840.n1 w_32630_16840.t7 9.231
R457 w_32630_16840.n1 w_32630_16840.t3 9.231
R458 w_32630_16840.n2 w_32630_16840.t6 9.231
R459 w_32630_16840.n2 w_32630_16840.t8 9.231
R460 w_32630_16840.n3 w_32630_16840.t4 9.231
R461 w_32630_16840.n3 w_32630_16840.t5 9.231
R462 w_32630_16840.n5 w_32630_16840.n0 0.515
R463 w_32630_16840.n6 w_32630_16840.n3 0.433
R464 w_32630_16840.n3 w_32630_16840.n2 0.433
R465 w_32630_16840.n2 w_32630_16840.n1 0.433
R466 w_32630_16840.n6 w_32630_16840.n5 0.422
R467 w_32630_16840.n0 w_32630_16840.n4 0.074
R468 w_1100_22900.t8 w_1100_22900.n8 595.081
R469 w_1100_22900.t17 w_1100_22900.n7 595.081
R470 w_1100_22900.t5 w_1100_22900.n9 595.081
R471 w_1100_22900.n10 w_1100_22900.t14 595.081
R472 w_1100_22900.n10 w_1100_22900.t8 595.081
R473 w_1100_22900.n10 w_1100_22900.t17 595.081
R474 w_1100_22900.n10 w_1100_22900.t5 595.081
R475 w_1100_22900.n10 w_1100_22900.t11 595.081
R476 w_1100_22900.t18 w_1100_22900.t15 118.434
R477 w_1100_22900.t18 w_1100_22900.n4 105.788
R478 w_1100_22900.t18 w_1100_22900.t6 59.666
R479 w_1100_22900.t18 w_1100_22900.t9 59.666
R480 w_1100_22900.n3 w_1100_22900.t12 11.729
R481 w_1100_22900.n0 w_1100_22900.t3 3.73
R482 w_1100_22900.n11 w_1100_22900.t13 3.57
R483 w_1100_22900.n11 w_1100_22900.t7 3.57
R484 w_1100_22900.n11 w_1100_22900.t16 3.57
R485 w_1100_22900.n1 w_1100_22900.t1 3.57
R486 w_1100_22900.n1 w_1100_22900.t0 3.57
R487 w_1100_22900.n0 w_1100_22900.t2 3.57
R488 w_1100_22900.n0 w_1100_22900.t4 3.57
R489 w_1100_22900.n11 w_1100_22900.t19 3.57
R490 w_1100_22900.t10 w_1100_22900.n11 3.57
R491 w_1100_22900.n2 w_1100_22900.t20 0.944
R492 w_1100_22900.n2 w_1100_22900.n1 0.509
R493 w_1100_22900.n1 w_1100_22900.n0 0.16
R494 w_1100_22900.n4 w_1100_22900.n3 0.075
R495 w_1100_22900.n11 w_1100_22900.n10 0.072
R496 w_1100_22900.t18 w_1100_22900.n2 0.053
R497 w_1100_22900.n10 w_1100_22900.t18 0.023
R498 w_1100_22900.t18 w_1100_22900.n6 0.008
R499 w_1100_22900.n6 w_1100_22900.n5 0.006
R500 a_32988_17137.n0 a_32988_17137.t3 364.171
R501 a_32988_17137.n0 a_32988_17137.t1 364.171
R502 a_32988_17137.n1 a_32988_17137.t0 14.068
R503 a_32988_17137.t2 a_32988_17137.n1 2.547
R504 a_32988_17137.n1 a_32988_17137.n0 0.903
R505 w_19430_22900.t12 w_19430_22900.n8 595.081
R506 w_19430_22900.t0 w_19430_22900.n7 595.081
R507 w_19430_22900.t9 w_19430_22900.n9 595.081
R508 w_19430_22900.n10 w_19430_22900.t6 595.081
R509 w_19430_22900.n10 w_19430_22900.t12 595.081
R510 w_19430_22900.n10 w_19430_22900.t0 595.081
R511 w_19430_22900.n10 w_19430_22900.t9 595.081
R512 w_19430_22900.n10 w_19430_22900.t3 595.081
R513 w_19430_22900.t1 w_19430_22900.t7 118.434
R514 w_19430_22900.t1 w_19430_22900.n4 105.788
R515 w_19430_22900.t1 w_19430_22900.t10 59.666
R516 w_19430_22900.t1 w_19430_22900.t13 59.666
R517 w_19430_22900.n3 w_19430_22900.t4 11.729
R518 w_19430_22900.n0 w_19430_22900.t18 3.73
R519 w_19430_22900.n11 w_19430_22900.t5 3.57
R520 w_19430_22900.n11 w_19430_22900.t11 3.57
R521 w_19430_22900.n11 w_19430_22900.t8 3.57
R522 w_19430_22900.n1 w_19430_22900.t17 3.57
R523 w_19430_22900.n1 w_19430_22900.t15 3.57
R524 w_19430_22900.n0 w_19430_22900.t19 3.57
R525 w_19430_22900.n0 w_19430_22900.t16 3.57
R526 w_19430_22900.n11 w_19430_22900.t2 3.57
R527 w_19430_22900.t14 w_19430_22900.n11 3.57
R528 w_19430_22900.n2 w_19430_22900.t20 0.944
R529 w_19430_22900.n2 w_19430_22900.n1 0.509
R530 w_19430_22900.n1 w_19430_22900.n0 0.16
R531 w_19430_22900.n4 w_19430_22900.n3 0.075
R532 w_19430_22900.n11 w_19430_22900.n10 0.072